BEGIN Configuration File: neural_trail
// $Id: mesh88_lat 5506 2013-05-07 21:22:23Z qtedq $
// Copyright (c) 2007-2012, Trustees of The Leland Stanford Junior University
// All rights reserved.
//
// Redistribution and use in source and binary forms, with or without
// modification, are permitted provided that the following conditions are met:
//
// Redistributions of source code must retain the above copyright notice, this
// list of conditions and the following disclaimer.
// Redistributions in binary form must reproduce the above copyright notice,
// this list of conditions and the following disclaimer in the documentation
// and/or other materials provided with the distribution.
//
// THIS SOFTWARE IS PROVIDED BY THE COPYRIGHT HOLDERS AND CONTRIBUTORS "AS IS"
// AND ANY EXPRESS OR IMPLIED WARRANTIES, INCLUDING, BUT NOT LIMITED TO, THE
// IMPLIED WARRANTIES OF MERCHANTABILITY AND FITNESS FOR A PARTICULAR PURPOSE
// ARE DISCLAIMED. IN NO EVENT SHALL THE COPYRIGHT OWNER OR CONTRIBUTORS BE
// LIABLE FOR ANY DIRECT, INDIRECT, INCIDENTAL, SPECIAL, EXEMPLARY, OR
// CONSEQUENTIAL DAMAGES (INCLUDING, BUT NOT LIMITED TO, PROCUREMENT OF
// SUBSTITUTE GOODS OR SERVICES; LOSS OF USE, DATA, OR PROFITS; OR BUSINESS
// INTERRUPTION) HOWEVER CAUSED AND ON ANY THEORY OF LIABILITY, WHETHER IN
// CONTRACT, STRICT LIABILITY, OR TORT (INCLUDING NEGLIGENCE OR OTHERWISE)
// ARISING IN ANY WAY OUT OF THE USE OF THIS SOFTWARE, EVEN IF ADVISED OF THE
// POSSIBILITY OF SUCH DAMAGE.

//8X8 mesh with 20 flits per packet under injection mode
//injection rate here is packet per cycle, NOT flit per cycle

// Topology

watch_out = watch_out.log;
//watch_file = bbb;
watch_packets = {0,1,2,3,4,5,6,7,8,9,10,11,12,13,14,15,16,17,18,19,20,21,22,23,24,25,26,27,28,29};
use_read_write = 0;


topology = torus;
k = 8;
n = 2;
c = 4;

//x = 4;
//y = 4;
//xr = 2;
//yr = 2;

// Routing
//routing_function = dor;
routing_function = min_adapt;

// Flow control
num_vcs     = 8;
vc_buf_size = 8;
wait_for_tail_credit = 1;

// Router architecture
vc_allocator = islip;
sw_allocator = islip;
alloc_iters  = 1;

credit_delay   = 2;
routing_delay  = 0;
vc_alloc_delay = 1;
sw_alloc_delay = 1;

input_speedup     = 2;
output_speedup    = 1;
internal_speedup  = 1.0;


// Traffic
traffic = neural({{36,16,2}});
neural = 1;
//injection_process = neural;
injection_process = bernoulli;
packet_size = 8;
neurons_expect_lastlayer = 52;
neurons_firstlayer = 36;

// Simulation
//sim_type = latency;
sim_type = throughput;
injection_rate = 0.01;

sim_power = 1;
channel_width = 64;
power_output_file = power_out.log;
tech_file = temp65;

END Configuration File: neural_trail
Debug: classes = 1
Class 0:
Packet latency average = 56.6047
	minimum = 18
	maximum = 347
Network latency average = 56.3385
	minimum = 18
	maximum = 347
Slowest packet = 65
Flit latency average = 48.0414
	minimum = 11
	maximum = 340
Slowest flit = 520
Fragmentation average = 2.33333
	minimum = 0
	maximum = 16
Injected packet rate average = 0.0064375
	minimum = 0 (at node 36)
	maximum = 0.018 (at node 22)
Injected packet number = 412
Accepted packet rate average = 0.00604688
	minimum = 0 (at node 0)
	maximum = 0.037 (at node 36)
Injected flit rate average = 0.0514063
	minimum = 0 (at node 36)
	maximum = 0.144 (at node 22)
Accepted flit rate average= 0.0486406
	minimum = 0 (at node 0)
	maximum = 0.296 (at node 36)
Injected packet length average = 7.98544
Accepted packet length average = 8.04393
Total in-flight flits = 183 (0 measured)
latency change    = 1
throughput change = 1
Debug: classes = 1
Class 0:
Packet latency average = 48.2263
	minimum = 18
	maximum = 347
Network latency average = 47.915
	minimum = 18
	maximum = 347
Slowest packet = 65
Flit latency average = 40.0145
	minimum = 11
	maximum = 340
Slowest flit = 520
Fragmentation average = 1.76875
	minimum = 0
	maximum = 16
Injected packet rate average = 0.00641406
	minimum = 0 (at node 36)
	maximum = 0.018 (at node 22)
Injected packet number = 821
Accepted packet rate average = 0.00625
	minimum = 0 (at node 0)
	maximum = 0.0395 (at node 52)
Injected flit rate average = 0.0512344
	minimum = 0 (at node 36)
	maximum = 0.144 (at node 22)
Accepted flit rate average= 0.0500156
	minimum = 0 (at node 0)
	maximum = 0.316 (at node 52)
Injected packet length average = 7.98782
Accepted packet length average = 8.0025
Total in-flight flits = 166 (0 measured)
latency change    = 0.173731
throughput change = 0.0274914
Debug: classes = 1
Class 0:
Packet latency average = 42.1638
	minimum = 18
	maximum = 128
Network latency average = 41.9563
	minimum = 18
	maximum = 128
Slowest packet = 996
Flit latency average = 34.2359
	minimum = 11
	maximum = 121
Slowest flit = 7968
Fragmentation average = 1.34934
	minimum = 0
	maximum = 15
Injected packet rate average = 0.00710938
	minimum = 0 (at node 37)
	maximum = 0.017 (at node 0)
Injected packet number = 455
Accepted packet rate average = 0.00715625
	minimum = 0 (at node 0)
	maximum = 0.048 (at node 53)
Injected flit rate average = 0.0568906
	minimum = 0 (at node 37)
	maximum = 0.136 (at node 0)
Accepted flit rate average= 0.0574219
	minimum = 0 (at node 0)
	maximum = 0.384 (at node 53)
Injected packet length average = 8.0022
Accepted packet length average = 8.02402
Total in-flight flits = 131 (0 measured)
latency change    = 0.143785
throughput change = 0.12898
Warmed up ...Time used is 3000 cycles
Debug: classes = 1
Class 0:
Packet latency average = 41.7531
	minimum = 18
	maximum = 114
Network latency average = 41.4401
	minimum = 18
	maximum = 114
Slowest packet = 1317
Flit latency average = 33.9244
	minimum = 11
	maximum = 107
Slowest flit = 10536
Fragmentation average = 1.1467
	minimum = 0
	maximum = 10
Injected packet rate average = 0.00664062
	minimum = 0 (at node 37)
	maximum = 0.023 (at node 21)
Injected packet number = 425
Accepted packet rate average = 0.00667187
	minimum = 0 (at node 0)
	maximum = 0.026 (at node 36)
Injected flit rate average = 0.052875
	minimum = 0 (at node 37)
	maximum = 0.184 (at node 21)
Accepted flit rate average= 0.0533281
	minimum = 0 (at node 0)
	maximum = 0.215 (at node 36)
Injected packet length average = 7.96235
Accepted packet length average = 7.99297
Total in-flight flits = 118 (118 measured)
latency change    = 0.00983639
throughput change = 0.0767653
Debug: classes = 1
Class 0:
Packet latency average = 41.8627
	minimum = 18
	maximum = 128
Network latency average = 41.5456
	minimum = 18
	maximum = 128
Slowest packet = 2005
Flit latency average = 34.0438
	minimum = 11
	maximum = 121
Slowest flit = 16040
Fragmentation average = 1.06926
	minimum = 0
	maximum = 14
Injected packet rate average = 0.00657031
	minimum = 0 (at node 37)
	maximum = 0.0175 (at node 21)
Injected packet number = 841
Accepted packet rate average = 0.00657031
	minimum = 0 (at node 0)
	maximum = 0.025 (at node 47)
Injected flit rate average = 0.0524609
	minimum = 0 (at node 37)
	maximum = 0.14 (at node 21)
Accepted flit rate average= 0.0526094
	minimum = 0 (at node 0)
	maximum = 0.2035 (at node 47)
Injected packet length average = 7.98454
Accepted packet length average = 8.00713
Total in-flight flits = 125 (125 measured)
latency change    = 0.00261907
throughput change = 0.013662
Debug: classes = 1
Class 0:
Packet latency average = 41.2196
	minimum = 18
	maximum = 128
Network latency average = 40.8898
	minimum = 18
	maximum = 128
Slowest packet = 2005
Flit latency average = 33.4135
	minimum = 11
	maximum = 121
Slowest flit = 16040
Fragmentation average = 1.00249
	minimum = 0
	maximum = 14
Injected packet rate average = 0.00636458
	minimum = 0 (at node 37)
	maximum = 0.0153333 (at node 21)
Injected packet number = 1222
Accepted packet rate average = 0.00638021
	minimum = 0 (at node 0)
	maximum = 0.024 (at node 47)
Injected flit rate average = 0.0509167
	minimum = 0 (at node 37)
	maximum = 0.121333 (at node 21)
Accepted flit rate average= 0.0509844
	minimum = 0 (at node 0)
	maximum = 0.192 (at node 47)
Injected packet length average = 8
Accepted packet length average = 7.99102
Total in-flight flits = 118 (118 measured)
latency change    = 0.0156029
throughput change = 0.0318725
Debug: classes = 1
Class 0:
Packet latency average = 41.2192
	minimum = 18
	maximum = 128
Network latency average = 40.9052
	minimum = 18
	maximum = 128
Slowest packet = 2005
Flit latency average = 33.4333
	minimum = 11
	maximum = 121
Slowest flit = 16040
Fragmentation average = 0.981156
	minimum = 0
	maximum = 14
Injected packet rate average = 0.00625391
	minimum = 0 (at node 37)
	maximum = 0.0135 (at node 21)
Injected packet number = 1601
Accepted packet rate average = 0.00628906
	minimum = 0 (at node 0)
	maximum = 0.02325 (at node 36)
Injected flit rate average = 0.0500664
	minimum = 0 (at node 37)
	maximum = 0.108 (at node 21)
Accepted flit rate average= 0.0503203
	minimum = 0 (at node 0)
	maximum = 0.187 (at node 37)
Injected packet length average = 8.00562
Accepted packet length average = 8.00124
Total in-flight flits = 57 (57 measured)
latency change    = 8.04247e-06
throughput change = 0.0131967
Draining remaining packets ...
Time taken is 7049 cycles
====== Overall Traffic Statistics ======
====== Traffic class 0 ======
Packet latency average = 41.2486 (1 samples)
	minimum = 18 (1 samples)
	maximum = 128 (1 samples)
Network latency average = 40.9344 (1 samples)
	minimum = 18 (1 samples)
	maximum = 128 (1 samples)
Flit latency average = 33.4544 (1 samples)
	minimum = 11 (1 samples)
	maximum = 121 (1 samples)
Fragmentation average = 0.983136 (1 samples)
	minimum = 0 (1 samples)
	maximum = 14 (1 samples)
Injected packet rate average = 0.00625391 (1 samples)
	minimum = 0 (1 samples)
	maximum = 0.0135 (1 samples)
Accepted packet rate average = 0.00628906 (1 samples)
	minimum = 0 (1 samples)
	maximum = 0.02325 (1 samples)
Injected flit rate average = 0.0500664 (1 samples)
	minimum = 0 (1 samples)
	maximum = 0.108 (1 samples)
Accepted flit rate average = 0.0503203 (1 samples)
	minimum = 0 (1 samples)
	maximum = 0.187 (1 samples)
Injected packet size average = 8.00562 (1 samples)
Accepted packet size average = 8.00124 (1 samples)
Hops average = 5.58339 (1 samples)
Total run time 151.906
L = 2 K = 8.1 M = 2 N = 1
L = 4 K = 8.1 M = 4 N = 1
-----------------------------------------
- OCN Power Summary
- Completion Time:         7049
- Flit Widths:            64
- Channel Wire Power:      19.6321
- Channel Clock Power:     2.58284
- Channel Retiming Power:  0.243918
- Channel Leakage Power:   0.913711
- Input Read Power:        0.565191
- Input Write Power:       0.565191
- Input Leakage Power:     0.377487
- Switch Power:            0.594933
- Switch Control Power:    0.24479
- Switch Leakage Power:    0.468521
- Output DFF Power:        0.0609796
- Output Clk Power:        0.645709
- Output Control Power:    0.0314705
- Total Power:             26.9269
-----------------------------------------

-----------------------------------------
- OCN Area Summary
- Channel Area:  0.166933
- Switch  Area:  0.167772
- Input  Area:   0.402653
- Output  Area:  0.0131072
- Total Area:    0.750466
-----------------------------------------
