BEGIN Configuration File: neural_trail
// $Id: mesh88_lat 5506 2013-05-07 21:22:23Z qtedq $
// Copyright (c) 2007-2012, Trustees of The Leland Stanford Junior University
// All rights reserved.
//
// Redistribution and use in source and binary forms, with or without
// modification, are permitted provided that the following conditions are met:
//
// Redistributions of source code must retain the above copyright notice, this
// list of conditions and the following disclaimer.
// Redistributions in binary form must reproduce the above copyright notice,
// this list of conditions and the following disclaimer in the documentation
// and/or other materials provided with the distribution.
//
// THIS SOFTWARE IS PROVIDED BY THE COPYRIGHT HOLDERS AND CONTRIBUTORS "AS IS"
// AND ANY EXPRESS OR IMPLIED WARRANTIES, INCLUDING, BUT NOT LIMITED TO, THE
// IMPLIED WARRANTIES OF MERCHANTABILITY AND FITNESS FOR A PARTICULAR PURPOSE
// ARE DISCLAIMED. IN NO EVENT SHALL THE COPYRIGHT OWNER OR CONTRIBUTORS BE
// LIABLE FOR ANY DIRECT, INDIRECT, INCIDENTAL, SPECIAL, EXEMPLARY, OR
// CONSEQUENTIAL DAMAGES (INCLUDING, BUT NOT LIMITED TO, PROCUREMENT OF
// SUBSTITUTE GOODS OR SERVICES; LOSS OF USE, DATA, OR PROFITS; OR BUSINESS
// INTERRUPTION) HOWEVER CAUSED AND ON ANY THEORY OF LIABILITY, WHETHER IN
// CONTRACT, STRICT LIABILITY, OR TORT (INCLUDING NEGLIGENCE OR OTHERWISE)
// ARISING IN ANY WAY OUT OF THE USE OF THIS SOFTWARE, EVEN IF ADVISED OF THE
// POSSIBILITY OF SUCH DAMAGE.

//8X8 mesh with 20 flits per packet under injection mode
//injection rate here is packet per cycle, NOT flit per cycle

// Topology

watch_out = watch_out.log;
//watch_file = bbb;
watch_packets = {0,1,2,3,4,5,6,7,8,9,10,11,12,13,14,15,16,17,18,19,20,21,22,23,24,25,26,27,28,29};
use_read_write = 0;


topology = torus;
k = 8;
n = 2;
c = 4;

//x = 4;
//y = 4;
//xr = 2;
//yr = 2;

// Routing
//routing_function = dor;
routing_function = min_adapt;

// Flow control
num_vcs     = 8;
vc_buf_size = 8;
wait_for_tail_credit = 1;

// Router architecture
vc_allocator = islip;
sw_allocator = islip;
alloc_iters  = 1;

credit_delay   = 2;
routing_delay  = 0;
vc_alloc_delay = 1;
sw_alloc_delay = 1;

input_speedup     = 2;
output_speedup    = 1;
internal_speedup  = 1.0;


// Traffic
traffic = neural({{36,16,2}});
neural = 1;
//injection_process = neural;
injection_process = bernoulli;
packet_size = 8;
neurons_expect_lastlayer = 52;
neurons_firstlayer = 36;

// Simulation
//sim_type = latency;
sim_type = throughput;
injection_rate = 0.05;

sim_power = 1;
channel_width = 64;
power_output_file = power_out.log;
tech_file = temp65;

END Configuration File: neural_trail
Debug: classes = 1
Class 0:
Packet latency average = 156.121
	minimum = 18
	maximum = 839
Network latency average = 149.106
	minimum = 18
	maximum = 836
Slowest packet = 214
Flit latency average = 139.494
	minimum = 11
	maximum = 829
Slowest flit = 1712
Fragmentation average = 6.01125
	minimum = 0
	maximum = 36
Injected packet rate average = 0.0222656
	minimum = 0 (at node 47)
	maximum = 0.06 (at node 35)
Injected packet number = 1425
Accepted packet rate average = 0.0152812
	minimum = 0 (at node 0)
	maximum = 0.094 (at node 52)
Injected flit rate average = 0.177469
	minimum = 0 (at node 47)
	maximum = 0.474 (at node 35)
Accepted flit rate average= 0.122922
	minimum = 0 (at node 0)
	maximum = 0.752 (at node 52)
Injected packet length average = 7.97053
Accepted packet length average = 8.04397
Total in-flight flits = 3725 (0 measured)
latency change    = 1
throughput change = 1
Debug: classes = 1
Class 0:
Packet latency average = 315.088
	minimum = 18
	maximum = 1854
Network latency average = 221.116
	minimum = 18
	maximum = 1854
Slowest packet = 60
Flit latency average = 211.516
	minimum = 11
	maximum = 1847
Slowest flit = 480
Fragmentation average = 4.87311
	minimum = 0
	maximum = 36
Injected packet rate average = 0.0175156
	minimum = 0 (at node 47)
	maximum = 0.057 (at node 35)
Injected packet number = 2242
Accepted packet rate average = 0.0144688
	minimum = 0 (at node 0)
	maximum = 0.065 (at node 52)
Injected flit rate average = 0.139961
	minimum = 0 (at node 47)
	maximum = 0.456 (at node 35)
Accepted flit rate average= 0.11593
	minimum = 0 (at node 0)
	maximum = 0.52 (at node 52)
Injected packet length average = 7.99063
Accepted packet length average = 8.01242
Total in-flight flits = 3305 (0 measured)
latency change    = 0.504517
throughput change = 0.060314
Debug: classes = 1
Class 0:
Packet latency average = 833.214
	minimum = 18
	maximum = 2585
Network latency average = 319.636
	minimum = 18
	maximum = 2585
Slowest packet = 87
Flit latency average = 311.461
	minimum = 11
	maximum = 2578
Slowest flit = 696
Fragmentation average = 3.07226
	minimum = 0
	maximum = 17
Injected packet rate average = 0.0128281
	minimum = 0 (at node 7)
	maximum = 0.055 (at node 24)
Injected packet number = 821
Accepted packet rate average = 0.0134062
	minimum = 0 (at node 0)
	maximum = 0.057 (at node 40)
Injected flit rate average = 0.102313
	minimum = 0 (at node 7)
	maximum = 0.436 (at node 24)
Accepted flit rate average= 0.107891
	minimum = 0 (at node 0)
	maximum = 0.465 (at node 40)
Injected packet length average = 7.97564
Accepted packet length average = 8.04779
Total in-flight flits = 2936 (0 measured)
latency change    = 0.62184
throughput change = 0.0745112
Warmed up ...Time used is 3000 cycles
Debug: classes = 1
Class 0:
Packet latency average = 782.318
	minimum = 18
	maximum = 3239
Network latency average = 103.682
	minimum = 18
	maximum = 752
Slowest packet = 3088
Flit latency average = 237.897
	minimum = 11
	maximum = 3770
Slowest flit = 3025
Fragmentation average = 3.46073
	minimum = 0
	maximum = 28
Injected packet rate average = 0.01475
	minimum = 0 (at node 15)
	maximum = 0.091 (at node 0)
Injected packet number = 944
Accepted packet rate average = 0.0147656
	minimum = 0 (at node 0)
	maximum = 0.061 (at node 37)
Injected flit rate average = 0.118359
	minimum = 0 (at node 15)
	maximum = 0.73 (at node 0)
Accepted flit rate average= 0.117766
	minimum = 0 (at node 0)
	maximum = 0.478 (at node 37)
Injected packet length average = 8.02436
Accepted packet length average = 7.97566
Total in-flight flits = 2967 (1428 measured)
latency change    = 0.0650584
throughput change = 0.083853
Debug: classes = 1
Class 0:
Packet latency average = 1011.54
	minimum = 18
	maximum = 4388
Network latency average = 131.394
	minimum = 18
	maximum = 1617
Slowest packet = 3088
Flit latency average = 237.152
	minimum = 11
	maximum = 4272
Slowest flit = 2107
Fragmentation average = 3.34723
	minimum = 0
	maximum = 28
Injected packet rate average = 0.0148437
	minimum = 0 (at node 22)
	maximum = 0.073 (at node 0)
Injected packet number = 1900
Accepted packet rate average = 0.0148281
	minimum = 0 (at node 0)
	maximum = 0.0595 (at node 42)
Injected flit rate average = 0.11893
	minimum = 0 (at node 22)
	maximum = 0.5875 (at node 0)
Accepted flit rate average= 0.118555
	minimum = 0 (at node 0)
	maximum = 0.478 (at node 42)
Injected packet length average = 8.01211
Accepted packet length average = 7.99526
Total in-flight flits = 2993 (1745 measured)
latency change    = 0.226604
throughput change = 0.00665568
Debug: classes = 1
Class 0:
Packet latency average = 1156.87
	minimum = 18
	maximum = 5406
Network latency average = 150.932
	minimum = 18
	maximum = 2294
Slowest packet = 3088
Flit latency average = 256.463
	minimum = 11
	maximum = 5942
Slowest flit = 75
Fragmentation average = 3.30993
	minimum = 0
	maximum = 28
Injected packet rate average = 0.0145365
	minimum = 0 (at node 30)
	maximum = 0.064 (at node 0)
Injected packet number = 2791
Accepted packet rate average = 0.0145625
	minimum = 0 (at node 0)
	maximum = 0.0586667 (at node 42)
Injected flit rate average = 0.116422
	minimum = 0 (at node 30)
	maximum = 0.514333 (at node 0)
Accepted flit rate average= 0.116432
	minimum = 0 (at node 0)
	maximum = 0.470333 (at node 42)
Injected packet length average = 8.00896
Accepted packet length average = 7.99535
Total in-flight flits = 2925 (1904 measured)
latency change    = 0.125628
throughput change = 0.0182286
Debug: classes = 1
Class 0:
Packet latency average = 1252.99
	minimum = 18
	maximum = 6457
Network latency average = 160.172
	minimum = 18
	maximum = 2567
Slowest packet = 3088
Flit latency average = 262.073
	minimum = 11
	maximum = 6594
Slowest flit = 1807
Fragmentation average = 3.31317
	minimum = 0
	maximum = 28
Injected packet rate average = 0.0144844
	minimum = 0 (at node 31)
	maximum = 0.0645 (at node 5)
Injected packet number = 3708
Accepted packet rate average = 0.0144766
	minimum = 0 (at node 0)
	maximum = 0.0585 (at node 50)
Injected flit rate average = 0.115918
	minimum = 0 (at node 31)
	maximum = 0.51625 (at node 5)
Accepted flit rate average= 0.115711
	minimum = 0 (at node 0)
	maximum = 0.466 (at node 50)
Injected packet length average = 8.00297
Accepted packet length average = 7.99298
Total in-flight flits = 3010 (2146 measured)
latency change    = 0.0767114
throughput change = 0.00623411
Draining remaining packets ...
Class 0:
Remaining flits: 9256 9257 9258 9259 9260 9261 9262 9263 15016 15017 [...] (61 flits)
Measured flits: 35272 35273 35274 35275 35276 35277 35278 35279 41600 41601 [...] (24 flits)
Time taken is 8122 cycles
====== Overall Traffic Statistics ======
====== Traffic class 0 ======
Packet latency average = 1430.31 (1 samples)
	minimum = 18 (1 samples)
	maximum = 7148 (1 samples)
Network latency average = 219.099 (1 samples)
	minimum = 18 (1 samples)
	maximum = 4677 (1 samples)
Flit latency average = 470.229 (1 samples)
	minimum = 11 (1 samples)
	maximum = 7768 (1 samples)
Fragmentation average = 3.23545 (1 samples)
	minimum = 0 (1 samples)
	maximum = 28 (1 samples)
Injected packet rate average = 0.0144844 (1 samples)
	minimum = 0 (1 samples)
	maximum = 0.0645 (1 samples)
Accepted packet rate average = 0.0144766 (1 samples)
	minimum = 0 (1 samples)
	maximum = 0.0585 (1 samples)
Injected flit rate average = 0.115918 (1 samples)
	minimum = 0 (1 samples)
	maximum = 0.51625 (1 samples)
Accepted flit rate average = 0.115711 (1 samples)
	minimum = 0 (1 samples)
	maximum = 0.466 (1 samples)
Injected packet size average = 8.00297 (1 samples)
Accepted packet size average = 7.99298 (1 samples)
Hops average = 5.42807 (1 samples)
Total run time 486.903
L = 2 K = 8.1 M = 2 N = 1
L = 4 K = 8.1 M = 4 N = 1
-----------------------------------------
- OCN Power Summary
- Completion Time:         8122
- Flit Widths:            64
- Channel Wire Power:      39.5125
- Channel Clock Power:     2.58284
- Channel Retiming Power:  0.490921
- Channel Leakage Power:   0.913711
- Input Read Power:        1.13753
- Input Write Power:       1.13753
- Input Leakage Power:     0.377487
- Switch Power:            1.19718
- Switch Control Power:    0.492676
- Switch Leakage Power:    0.468521
- Output DFF Power:        0.12273
- Output Clk Power:        0.645709
- Output Control Power:    0.063339
- Total Power:             49.1426
-----------------------------------------

-----------------------------------------
- OCN Area Summary
- Channel Area:  0.166933
- Switch  Area:  0.167772
- Input  Area:   0.402653
- Output  Area:  0.0131072
- Total Area:    0.750466
-----------------------------------------
