BEGIN Configuration File: neural_trail
// $Id: mesh88_lat 5506 2013-05-07 21:22:23Z qtedq $
// Copyright (c) 2007-2012, Trustees of The Leland Stanford Junior University
// All rights reserved.
//
// Redistribution and use in source and binary forms, with or without
// modification, are permitted provided that the following conditions are met:
//
// Redistributions of source code must retain the above copyright notice, this
// list of conditions and the following disclaimer.
// Redistributions in binary form must reproduce the above copyright notice,
// this list of conditions and the following disclaimer in the documentation
// and/or other materials provided with the distribution.
//
// THIS SOFTWARE IS PROVIDED BY THE COPYRIGHT HOLDERS AND CONTRIBUTORS "AS IS"
// AND ANY EXPRESS OR IMPLIED WARRANTIES, INCLUDING, BUT NOT LIMITED TO, THE
// IMPLIED WARRANTIES OF MERCHANTABILITY AND FITNESS FOR A PARTICULAR PURPOSE
// ARE DISCLAIMED. IN NO EVENT SHALL THE COPYRIGHT OWNER OR CONTRIBUTORS BE
// LIABLE FOR ANY DIRECT, INDIRECT, INCIDENTAL, SPECIAL, EXEMPLARY, OR
// CONSEQUENTIAL DAMAGES (INCLUDING, BUT NOT LIMITED TO, PROCUREMENT OF
// SUBSTITUTE GOODS OR SERVICES; LOSS OF USE, DATA, OR PROFITS; OR BUSINESS
// INTERRUPTION) HOWEVER CAUSED AND ON ANY THEORY OF LIABILITY, WHETHER IN
// CONTRACT, STRICT LIABILITY, OR TORT (INCLUDING NEGLIGENCE OR OTHERWISE)
// ARISING IN ANY WAY OUT OF THE USE OF THIS SOFTWARE, EVEN IF ADVISED OF THE
// POSSIBILITY OF SUCH DAMAGE.

//8X8 mesh with 20 flits per packet under injection mode
//injection rate here is packet per cycle, NOT flit per cycle

// Topology

watch_out = watch_out.log;
//watch_file = bbb;
watch_packets = {0,1,2,3,4,5,6,7,8,9,10,11,12,13,14,15,16,17,18,19,20,21,22,23,24,25,26,27,28,29};
use_read_write = 0;


topology = torus;
k = 8;
n = 2;
c = 4;

//x = 4;
//y = 4;
//xr = 2;
//yr = 2;

// Routing
//routing_function = dor;
routing_function = min_adapt;

// Flow control
num_vcs     = 8;
vc_buf_size = 8;
wait_for_tail_credit = 1;

// Router architecture
vc_allocator = islip;
sw_allocator = islip;
alloc_iters  = 1;

credit_delay   = 2;
routing_delay  = 0;
vc_alloc_delay = 1;
sw_alloc_delay = 1;

input_speedup     = 2;
output_speedup    = 1;
internal_speedup  = 1.0;


// Traffic
traffic = neural({{36,16,2}});
neural = 1;
//injection_process = neural;
injection_process = bernoulli;
packet_size = 8;
neurons_expect_lastlayer = 52;
neurons_firstlayer = 36;

// Simulation
//sim_type = latency;
sim_type = throughput;
injection_rate = 0.15;

sim_power = 1;
channel_width = 64;
power_output_file = power_out.log;
tech_file = temp65;

END Configuration File: neural_trail
Debug: classes = 1
Class 0:
Packet latency average = 347.281
	minimum = 21
	maximum = 953
Network latency average = 224.943
	minimum = 18
	maximum = 936
Slowest packet = 206
Flit latency average = 216.394
	minimum = 11
	maximum = 981
Slowest flit = 352
Fragmentation average = 6.3186
	minimum = 0
	maximum = 32
Injected packet rate average = 0.0208125
	minimum = 0 (at node 38)
	maximum = 0.073 (at node 49)
Injected packet number = 1332
Accepted packet rate average = 0.0120156
	minimum = 0 (at node 0)
	maximum = 0.111 (at node 53)
Injected flit rate average = 0.166078
	minimum = 0 (at node 38)
	maximum = 0.584 (at node 49)
Accepted flit rate average= 0.096625
	minimum = 0 (at node 0)
	maximum = 0.897 (at node 53)
Injected packet length average = 7.97973
Accepted packet length average = 8.04161
Total in-flight flits = 4752 (0 measured)
latency change    = 1
throughput change = 1
Debug: classes = 1
Class 0:
Packet latency average = 741.517
	minimum = 21
	maximum = 1936
Network latency average = 306.414
	minimum = 18
	maximum = 1922
Slowest packet = 95
Flit latency average = 295.717
	minimum = 11
	maximum = 1915
Slowest flit = 760
Fragmentation average = 5.50743
	minimum = 0
	maximum = 32
Injected packet rate average = 0.0163984
	minimum = 0 (at node 40)
	maximum = 0.0765 (at node 3)
Injected packet number = 2099
Accepted packet rate average = 0.0126094
	minimum = 0 (at node 0)
	maximum = 0.1115 (at node 53)
Injected flit rate average = 0.131039
	minimum = 0 (at node 40)
	maximum = 0.612 (at node 3)
Accepted flit rate average= 0.101312
	minimum = 0 (at node 0)
	maximum = 0.892 (at node 53)
Injected packet length average = 7.99095
Accepted packet length average = 8.0347
Total in-flight flits = 4088 (0 measured)
latency change    = 0.531661
throughput change = 0.0462677
Debug: classes = 1
Class 0:
Packet latency average = 1675.61
	minimum = 35
	maximum = 2959
Network latency average = 399.631
	minimum = 18
	maximum = 2959
Slowest packet = 25
Flit latency average = 393.712
	minimum = 11
	maximum = 2952
Slowest flit = 207
Fragmentation average = 3.63791
	minimum = 0
	maximum = 18
Injected packet rate average = 0.010625
	minimum = 0 (at node 0)
	maximum = 0.102 (at node 44)
Injected packet number = 680
Accepted packet rate average = 0.0119531
	minimum = 0 (at node 0)
	maximum = 0.103 (at node 52)
Injected flit rate average = 0.0848906
	minimum = 0 (at node 0)
	maximum = 0.819 (at node 44)
Accepted flit rate average= 0.0951406
	minimum = 0 (at node 0)
	maximum = 0.818 (at node 52)
Injected packet length average = 7.98971
Accepted packet length average = 7.95948
Total in-flight flits = 3415 (0 measured)
latency change    = 0.557465
throughput change = 0.0648711
Warmed up ...Time used is 3000 cycles
Debug: classes = 1
Class 0:
Packet latency average = 2261.22
	minimum = 18
	maximum = 3689
Network latency average = 101.092
	minimum = 18
	maximum = 848
Slowest packet = 2813
Flit latency average = 352.999
	minimum = 11
	maximum = 3829
Slowest flit = 7
Fragmentation average = 3.99605
	minimum = 0
	maximum = 22
Injected packet rate average = 0.0153594
	minimum = 0 (at node 0)
	maximum = 0.124 (at node 35)
Injected packet number = 983
Accepted packet rate average = 0.0148594
	minimum = 0 (at node 0)
	maximum = 0.071 (at node 44)
Injected flit rate average = 0.122922
	minimum = 0 (at node 0)
	maximum = 0.987 (at node 35)
Accepted flit rate average= 0.119063
	minimum = 0 (at node 0)
	maximum = 0.566 (at node 44)
Injected packet length average = 8.00305
Accepted packet length average = 8.01262
Total in-flight flits = 3659 (1755 measured)
latency change    = 0.258981
throughput change = 0.200919
Debug: classes = 1
Class 0:
Packet latency average = 2668.58
	minimum = 18
	maximum = 4737
Network latency average = 144.791
	minimum = 18
	maximum = 1769
Slowest packet = 2813
Flit latency average = 380.377
	minimum = 11
	maximum = 4953
Slowest flit = 167
Fragmentation average = 3.86698
	minimum = 0
	maximum = 22
Injected packet rate average = 0.0154531
	minimum = 0 (at node 7)
	maximum = 0.1225 (at node 35)
Injected packet number = 1978
Accepted packet rate average = 0.0152266
	minimum = 0 (at node 0)
	maximum = 0.075 (at node 36)
Injected flit rate average = 0.123688
	minimum = 0 (at node 7)
	maximum = 0.979 (at node 35)
Accepted flit rate average= 0.121859
	minimum = 0 (at node 0)
	maximum = 0.601 (at node 36)
Injected packet length average = 8.00404
Accepted packet length average = 8.00308
Total in-flight flits = 3617 (2297 measured)
latency change    = 0.152651
throughput change = 0.0229517
Debug: classes = 1
Class 0:
Packet latency average = 3101.78
	minimum = 18
	maximum = 5754
Network latency average = 173.299
	minimum = 18
	maximum = 2378
Slowest packet = 2813
Flit latency average = 388.056
	minimum = 11
	maximum = 5886
Slowest flit = 135
Fragmentation average = 3.8126
	minimum = 0
	maximum = 22
Injected packet rate average = 0.015099
	minimum = 0 (at node 7)
	maximum = 0.118667 (at node 35)
Injected packet number = 2899
Accepted packet rate average = 0.0150104
	minimum = 0 (at node 0)
	maximum = 0.0693333 (at node 36)
Injected flit rate average = 0.120818
	minimum = 0 (at node 7)
	maximum = 0.949333 (at node 35)
Accepted flit rate average= 0.120167
	minimum = 0 (at node 0)
	maximum = 0.554667 (at node 36)
Injected packet length average = 8.00172
Accepted packet length average = 8.00555
Total in-flight flits = 3543 (2583 measured)
latency change    = 0.13966
throughput change = 0.0140863
Debug: classes = 1
Class 0:
Packet latency average = 3543.25
	minimum = 18
	maximum = 6630
Network latency average = 191.875
	minimum = 18
	maximum = 3038
Slowest packet = 2813
Flit latency average = 392.35
	minimum = 11
	maximum = 6434
Slowest flit = 15
Fragmentation average = 3.85044
	minimum = 0
	maximum = 23
Injected packet rate average = 0.0151289
	minimum = 0 (at node 7)
	maximum = 0.112 (at node 35)
Injected packet number = 3873
Accepted packet rate average = 0.0151602
	minimum = 0 (at node 0)
	maximum = 0.06875 (at node 36)
Injected flit rate average = 0.121055
	minimum = 0 (at node 7)
	maximum = 0.896 (at node 35)
Accepted flit rate average= 0.121309
	minimum = 0 (at node 0)
	maximum = 0.55 (at node 36)
Injected packet length average = 8.00155
Accepted packet length average = 8.0018
Total in-flight flits = 3352 (2664 measured)
latency change    = 0.124595
throughput change = 0.00941341
Draining remaining packets ...
Class 0:
Remaining flits: 5424 5425 5426 5427 5428 5429 5430 5431 9528 9529 [...] (16 flits)
Measured flits: (0 flits)
Time taken is 8041 cycles
====== Overall Traffic Statistics ======
====== Traffic class 0 ======
Packet latency average = 3762.3 (1 samples)
	minimum = 18 (1 samples)
	maximum = 7688 (1 samples)
Network latency average = 274.978 (1 samples)
	minimum = 18 (1 samples)
	maximum = 4460 (1 samples)
Flit latency average = 572.586 (1 samples)
	minimum = 11 (1 samples)
	maximum = 7851 (1 samples)
Fragmentation average = 3.70212 (1 samples)
	minimum = 0 (1 samples)
	maximum = 23 (1 samples)
Injected packet rate average = 0.0151289 (1 samples)
	minimum = 0 (1 samples)
	maximum = 0.112 (1 samples)
Accepted packet rate average = 0.0151602 (1 samples)
	minimum = 0 (1 samples)
	maximum = 0.06875 (1 samples)
Injected flit rate average = 0.121055 (1 samples)
	minimum = 0 (1 samples)
	maximum = 0.896 (1 samples)
Accepted flit rate average = 0.121309 (1 samples)
	minimum = 0 (1 samples)
	maximum = 0.55 (1 samples)
Injected packet size average = 8.00155 (1 samples)
Accepted packet size average = 8.0018 (1 samples)
Hops average = 5.18895 (1 samples)
Total run time 551.796
L = 2 K = 8.1 M = 2 N = 1
L = 4 K = 8.1 M = 4 N = 1
-----------------------------------------
- OCN Power Summary
- Completion Time:         8041
- Flit Widths:            64
- Channel Wire Power:      37.6819
- Channel Clock Power:     2.58284
- Channel Retiming Power:  0.468177
- Channel Leakage Power:   0.913711
- Input Read Power:        1.08483
- Input Write Power:       1.08483
- Input Leakage Power:     0.377487
- Switch Power:            1.14462
- Switch Control Power:    0.469851
- Switch Leakage Power:    0.468521
- Output DFF Power:        0.117044
- Output Clk Power:        0.645709
- Output Control Power:    0.0604045
- Total Power:             47.0999
-----------------------------------------

-----------------------------------------
- OCN Area Summary
- Channel Area:  0.166933
- Switch  Area:  0.167772
- Input  Area:   0.402653
- Output  Area:  0.0131072
- Total Area:    0.750466
-----------------------------------------
