BEGIN Configuration File: neural_trail
// $Id: mesh88_lat 5506 2013-05-07 21:22:23Z qtedq $
// Copyright (c) 2007-2012, Trustees of The Leland Stanford Junior University
// All rights reserved.
//
// Redistribution and use in source and binary forms, with or without
// modification, are permitted provided that the following conditions are met:
//
// Redistributions of source code must retain the above copyright notice, this
// list of conditions and the following disclaimer.
// Redistributions in binary form must reproduce the above copyright notice,
// this list of conditions and the following disclaimer in the documentation
// and/or other materials provided with the distribution.
//
// THIS SOFTWARE IS PROVIDED BY THE COPYRIGHT HOLDERS AND CONTRIBUTORS "AS IS"
// AND ANY EXPRESS OR IMPLIED WARRANTIES, INCLUDING, BUT NOT LIMITED TO, THE
// IMPLIED WARRANTIES OF MERCHANTABILITY AND FITNESS FOR A PARTICULAR PURPOSE
// ARE DISCLAIMED. IN NO EVENT SHALL THE COPYRIGHT OWNER OR CONTRIBUTORS BE
// LIABLE FOR ANY DIRECT, INDIRECT, INCIDENTAL, SPECIAL, EXEMPLARY, OR
// CONSEQUENTIAL DAMAGES (INCLUDING, BUT NOT LIMITED TO, PROCUREMENT OF
// SUBSTITUTE GOODS OR SERVICES; LOSS OF USE, DATA, OR PROFITS; OR BUSINESS
// INTERRUPTION) HOWEVER CAUSED AND ON ANY THEORY OF LIABILITY, WHETHER IN
// CONTRACT, STRICT LIABILITY, OR TORT (INCLUDING NEGLIGENCE OR OTHERWISE)
// ARISING IN ANY WAY OUT OF THE USE OF THIS SOFTWARE, EVEN IF ADVISED OF THE
// POSSIBILITY OF SUCH DAMAGE.

//8X8 mesh with 20 flits per packet under injection mode
//injection rate here is packet per cycle, NOT flit per cycle

// Topology

watch_out = watch_out.log;
//watch_file = bbb;
watch_packets = {0,1,2,3,4,5,6,7,8,9,10,11,12,13,14,15,16,17,18,19,20,21,22,23,24,25,26,27,28,29};
use_read_write = 0;


topology = mesh;
k = 8;
n = 2;

// Routing
routing_function = dor;

// Flow control
num_vcs     = 8;
vc_buf_size = 8;
wait_for_tail_credit = 1;

// Router architecture
vc_allocator = islip;
sw_allocator = islip;
alloc_iters  = 1;

credit_delay   = 2;
routing_delay  = 0;
vc_alloc_delay = 1;
sw_alloc_delay = 1;

input_speedup     = 2;
output_speedup    = 1;
internal_speedup  = 1.0;


// Traffic
traffic = neural({{36,16,2}});
neural = 1;
//injection_process = neural;
injection_process = bernoulli;
packet_size = 8;
neurons_expect_lastlayer = 52;
neurons_firstlayer = 36;

// Simulation
//sim_type = latency;
sim_type = throughput;
injection_rate = 0.05;

sim_power = 1;
channel_width = 64;
power_output_file = power_out.log;
tech_file = temp65;

END Configuration File: neural_trail
Debug: classes = 1
Class 0:
Packet latency average = 198.76
	minimum = 17
	maximum = 833
Network latency average = 194.81
	minimum = 17
	maximum = 833
Slowest packet = 162
Flit latency average = 169.792
	minimum = 10
	maximum = 826
Slowest flit = 1303
Fragmentation average = 40.2701
	minimum = 0
	maximum = 103
Injected packet rate average = 0.0299375
	minimum = 0 (at node 40)
	maximum = 0.06 (at node 2)
Injected packet number = 1916
Accepted packet rate average = 0.0186875
	minimum = 0 (at node 0)
	maximum = 0.105 (at node 52)
Injected flit rate average = 0.238609
	minimum = 0 (at node 40)
	maximum = 0.474 (at node 2)
Accepted flit rate average= 0.153188
	minimum = 0 (at node 0)
	maximum = 0.854 (at node 52)
Injected packet length average = 7.97025
Accepted packet length average = 8.19732
Total in-flight flits = 5596 (0 measured)
latency change    = 1
throughput change = 1
Debug: classes = 1
Class 0:
Packet latency average = 315.496
	minimum = 17
	maximum = 1825
Network latency average = 304.033
	minimum = 17
	maximum = 1794
Slowest packet = 376
Flit latency average = 279.802
	minimum = 10
	maximum = 1787
Slowest flit = 3015
Fragmentation average = 40.8031
	minimum = 0
	maximum = 148
Injected packet rate average = 0.0251641
	minimum = 0 (at node 46)
	maximum = 0.0565 (at node 25)
Injected packet number = 3221
Accepted packet rate average = 0.0189687
	minimum = 0 (at node 0)
	maximum = 0.092 (at node 52)
Injected flit rate average = 0.201
	minimum = 0 (at node 46)
	maximum = 0.452 (at node 25)
Accepted flit rate average= 0.153508
	minimum = 0 (at node 0)
	maximum = 0.736 (at node 52)
Injected packet length average = 7.98758
Accepted packet length average = 8.09267
Total in-flight flits = 6271 (0 measured)
latency change    = 0.370008
throughput change = 0.00208662
Debug: classes = 1
Class 0:
Packet latency average = 670.227
	minimum = 17
	maximum = 2476
Network latency average = 547.182
	minimum = 17
	maximum = 2469
Slowest packet = 968
Flit latency average = 523.174
	minimum = 10
	maximum = 2462
Slowest flit = 7751
Fragmentation average = 41.2069
	minimum = 0
	maximum = 99
Injected packet rate average = 0.0177969
	minimum = 0 (at node 7)
	maximum = 0.057 (at node 33)
Injected packet number = 1139
Accepted packet rate average = 0.018125
	minimum = 0 (at node 0)
	maximum = 0.078 (at node 46)
Injected flit rate average = 0.142391
	minimum = 0 (at node 7)
	maximum = 0.456 (at node 33)
Accepted flit rate average= 0.145344
	minimum = 0 (at node 0)
	maximum = 0.624 (at node 46)
Injected packet length average = 8.00088
Accepted packet length average = 8.01897
Total in-flight flits = 6105 (0 measured)
latency change    = 0.529269
throughput change = 0.0561707
Warmed up ...Time used is 3000 cycles
Debug: classes = 1
Class 0:
Packet latency average = 383.788
	minimum = 17
	maximum = 2580
Network latency average = 164.575
	minimum = 17
	maximum = 905
Slowest packet = 4384
Flit latency average = 492.264
	minimum = 10
	maximum = 3277
Slowest flit = 11183
Fragmentation average = 32.565
	minimum = 0
	maximum = 149
Injected packet rate average = 0.01825
	minimum = 0 (at node 15)
	maximum = 0.062 (at node 32)
Injected packet number = 1168
Accepted packet rate average = 0.019375
	minimum = 0 (at node 0)
	maximum = 0.081 (at node 53)
Injected flit rate average = 0.145828
	minimum = 0 (at node 15)
	maximum = 0.496 (at node 32)
Accepted flit rate average= 0.155391
	minimum = 0 (at node 0)
	maximum = 0.659 (at node 52)
Injected packet length average = 7.99058
Accepted packet length average = 8.02016
Total in-flight flits = 5512 (3275 measured)
latency change    = 0.746346
throughput change = 0.0646556
Debug: classes = 1
Class 0:
Packet latency average = 647.975
	minimum = 17
	maximum = 3782
Network latency average = 237.194
	minimum = 17
	maximum = 1915
Slowest packet = 4384
Flit latency average = 499.287
	minimum = 10
	maximum = 4204
Slowest flit = 11567
Fragmentation average = 33.9491
	minimum = 0
	maximum = 149
Injected packet rate average = 0.0179844
	minimum = 0 (at node 15)
	maximum = 0.06 (at node 18)
Injected packet number = 2302
Accepted packet rate average = 0.019
	minimum = 0 (at node 0)
	maximum = 0.075 (at node 38)
Injected flit rate average = 0.143969
	minimum = 0 (at node 15)
	maximum = 0.48 (at node 18)
Accepted flit rate average= 0.15118
	minimum = 0 (at node 0)
	maximum = 0.594 (at node 38)
Injected packet length average = 8.00521
Accepted packet length average = 7.95683
Total in-flight flits = 5170 (4122 measured)
latency change    = 0.407711
throughput change = 0.0278539
Debug: classes = 1
Class 0:
Packet latency average = 802.052
	minimum = 17
	maximum = 4462
Network latency average = 278.911
	minimum = 17
	maximum = 2671
Slowest packet = 4384
Flit latency average = 485.629
	minimum = 10
	maximum = 5111
Slowest flit = 13191
Fragmentation average = 32.768
	minimum = 0
	maximum = 149
Injected packet rate average = 0.0177031
	minimum = 0 (at node 15)
	maximum = 0.054 (at node 32)
Injected packet number = 3399
Accepted packet rate average = 0.0184531
	minimum = 0 (at node 0)
	maximum = 0.071 (at node 39)
Injected flit rate average = 0.141651
	minimum = 0 (at node 15)
	maximum = 0.432667 (at node 32)
Accepted flit rate average= 0.147208
	minimum = 0 (at node 0)
	maximum = 0.563 (at node 39)
Injected packet length average = 8.00147
Accepted packet length average = 7.97742
Total in-flight flits = 5025 (4335 measured)
latency change    = 0.192104
throughput change = 0.0269778
Debug: classes = 1
Class 0:
Packet latency average = 984.766
	minimum = 17
	maximum = 5605
Network latency average = 336.926
	minimum = 17
	maximum = 3772
Slowest packet = 4384
Flit latency average = 504.733
	minimum = 10
	maximum = 5641
Slowest flit = 16703
Fragmentation average = 32.6116
	minimum = 0
	maximum = 149
Injected packet rate average = 0.0172461
	minimum = 0 (at node 36)
	maximum = 0.0535 (at node 32)
Injected packet number = 4415
Accepted packet rate average = 0.0177266
	minimum = 0 (at node 0)
	maximum = 0.06775 (at node 37)
Injected flit rate average = 0.137984
	minimum = 0 (at node 36)
	maximum = 0.4285 (at node 32)
Accepted flit rate average= 0.141512
	minimum = 0 (at node 0)
	maximum = 0.54075 (at node 39)
Injected packet length average = 8.00091
Accepted packet length average = 7.98303
Total in-flight flits = 5190 (4683 measured)
latency change    = 0.18554
throughput change = 0.0402554
Draining remaining packets ...
Class 0:
Remaining flits: 11063 15063 20060 20061 20062 20063 33100 33101 33102 33103 [...] (30 flits)
Measured flits: 36683 36684 36685 36686 36687 51500 51501 51502 51503 52004 [...] (20 flits)
Time taken is 8022 cycles
====== Overall Traffic Statistics ======
====== Traffic class 0 ======
Packet latency average = 1359.04 (1 samples)
	minimum = 17 (1 samples)
	maximum = 6822 (1 samples)
Network latency average = 477.856 (1 samples)
	minimum = 17 (1 samples)
	maximum = 4846 (1 samples)
Flit latency average = 667.198 (1 samples)
	minimum = 10 (1 samples)
	maximum = 7311 (1 samples)
Fragmentation average = 32.8745 (1 samples)
	minimum = 0 (1 samples)
	maximum = 149 (1 samples)
Injected packet rate average = 0.0172461 (1 samples)
	minimum = 0 (1 samples)
	maximum = 0.0535 (1 samples)
Accepted packet rate average = 0.0177266 (1 samples)
	minimum = 0 (1 samples)
	maximum = 0.06775 (1 samples)
Injected flit rate average = 0.137984 (1 samples)
	minimum = 0 (1 samples)
	maximum = 0.4285 (1 samples)
Accepted flit rate average = 0.141512 (1 samples)
	minimum = 0 (1 samples)
	maximum = 0.54075 (1 samples)
Injected packet size average = 8.00091 (1 samples)
Accepted packet size average = 7.98303 (1 samples)
Hops average = 5.95945 (1 samples)
Total run time 771.923
L = 2 K = 8.1 M = 2 N = 1
-----------------------------------------
- OCN Power Summary
- Completion Time:         8022
- Flit Widths:            64
- Channel Wire Power:      34.3066
- Channel Clock Power:     1.5497
- Channel Retiming Power:  0.426241
- Channel Leakage Power:   0.548227
- Input Read Power:        1.69843
- Input Write Power:       1.69843
- Input Leakage Power:     0.377487
- Switch Power:            1.77069
- Switch Control Power:    0.735608
- Switch Leakage Power:    0.468521
- Output DFF Power:        0.183247
- Output Clk Power:        0.645709
- Output Control Power:    0.0945706
- Total Power:             44.5035
-----------------------------------------

-----------------------------------------
- OCN Area Summary
- Channel Area:  0.10016
- Switch  Area:  0.167772
- Input  Area:   0.402653
- Output  Area:  0.0131072
- Total Area:    0.683693
-----------------------------------------
