BEGIN Configuration File: neural_trail
// $Id: mesh88_lat 5506 2013-05-07 21:22:23Z qtedq $
// Copyright (c) 2007-2012, Trustees of The Leland Stanford Junior University
// All rights reserved.
//
// Redistribution and use in source and binary forms, with or without
// modification, are permitted provided that the following conditions are met:
//
// Redistributions of source code must retain the above copyright notice, this
// list of conditions and the following disclaimer.
// Redistributions in binary form must reproduce the above copyright notice,
// this list of conditions and the following disclaimer in the documentation
// and/or other materials provided with the distribution.
//
// THIS SOFTWARE IS PROVIDED BY THE COPYRIGHT HOLDERS AND CONTRIBUTORS "AS IS"
// AND ANY EXPRESS OR IMPLIED WARRANTIES, INCLUDING, BUT NOT LIMITED TO, THE
// IMPLIED WARRANTIES OF MERCHANTABILITY AND FITNESS FOR A PARTICULAR PURPOSE
// ARE DISCLAIMED. IN NO EVENT SHALL THE COPYRIGHT OWNER OR CONTRIBUTORS BE
// LIABLE FOR ANY DIRECT, INDIRECT, INCIDENTAL, SPECIAL, EXEMPLARY, OR
// CONSEQUENTIAL DAMAGES (INCLUDING, BUT NOT LIMITED TO, PROCUREMENT OF
// SUBSTITUTE GOODS OR SERVICES; LOSS OF USE, DATA, OR PROFITS; OR BUSINESS
// INTERRUPTION) HOWEVER CAUSED AND ON ANY THEORY OF LIABILITY, WHETHER IN
// CONTRACT, STRICT LIABILITY, OR TORT (INCLUDING NEGLIGENCE OR OTHERWISE)
// ARISING IN ANY WAY OUT OF THE USE OF THIS SOFTWARE, EVEN IF ADVISED OF THE
// POSSIBILITY OF SUCH DAMAGE.

//8X8 mesh with 20 flits per packet under injection mode
//injection rate here is packet per cycle, NOT flit per cycle

// Topology

watch_out = watch_out.log;
//watch_file = bbb;
watch_packets = {0,1,2,3,4,5,6,7,8,9,10,11,12,13,14,15,16,17,18,19,20,21,22,23,24,25,26,27,28,29};
use_read_write = 0;


topology = mesh;
k = 8;
n = 2;

// Routing
routing_function = dor;

// Flow control
num_vcs     = 8;
vc_buf_size = 8;
wait_for_tail_credit = 1;

// Router architecture
vc_allocator = islip;
sw_allocator = islip;
alloc_iters  = 1;

credit_delay   = 2;
routing_delay  = 0;
vc_alloc_delay = 1;
sw_alloc_delay = 1;

input_speedup     = 2;
output_speedup    = 1;
internal_speedup  = 1.0;


// Traffic
traffic = neural({{36,16,2}});
neural = 1;
//injection_process = neural;
injection_process = bernoulli;
packet_size = 8;
neurons_expect_lastlayer = 52;
neurons_firstlayer = 36;

// Simulation
//sim_type = latency;
sim_type = throughput;
injection_rate = 0.15;

sim_power = 1;
channel_width = 64;
power_output_file = power_out.log;
tech_file = temp65;

END Configuration File: neural_trail
Debug: classes = 1
Class 0:
Packet latency average = 352.712
	minimum = 21
	maximum = 926
Network latency average = 280.653
	minimum = 17
	maximum = 913
Slowest packet = 30
Flit latency average = 255.925
	minimum = 10
	maximum = 944
Slowest flit = 1563
Fragmentation average = 43.8896
	minimum = 0
	maximum = 95
Injected packet rate average = 0.0338125
	minimum = 0 (at node 38)
	maximum = 0.114 (at node 35)
Injected packet number = 2164
Accepted packet rate average = 0.0193906
	minimum = 0 (at node 0)
	maximum = 0.109 (at node 52)
Injected flit rate average = 0.270094
	minimum = 0 (at node 38)
	maximum = 0.912 (at node 35)
Accepted flit rate average= 0.159516
	minimum = 0 (at node 0)
	maximum = 0.898 (at node 52)
Injected packet length average = 7.98799
Accepted packet length average = 8.22643
Total in-flight flits = 7351 (0 measured)
latency change    = 1
throughput change = 1
Debug: classes = 1
Class 0:
Packet latency average = 656.845
	minimum = 21
	maximum = 1902
Network latency average = 422.9
	minimum = 17
	maximum = 1864
Slowest packet = 321
Flit latency average = 398.089
	minimum = 10
	maximum = 1895
Slowest flit = 2917
Fragmentation average = 42.7274
	minimum = 0
	maximum = 95
Injected packet rate average = 0.0262891
	minimum = 0 (at node 38)
	maximum = 0.113 (at node 35)
Injected packet number = 3365
Accepted packet rate average = 0.0195469
	minimum = 0 (at node 0)
	maximum = 0.0925 (at node 52)
Injected flit rate average = 0.210148
	minimum = 0 (at node 38)
	maximum = 0.9015 (at node 35)
Accepted flit rate average= 0.158156
	minimum = 0 (at node 0)
	maximum = 0.74 (at node 52)
Injected packet length average = 7.99376
Accepted packet length average = 8.09113
Total in-flight flits = 6924 (0 measured)
latency change    = 0.463021
throughput change = 0.00859514
Debug: classes = 1
Class 0:
Packet latency average = 1620.19
	minimum = 17
	maximum = 2912
Network latency average = 623.925
	minimum = 17
	maximum = 2873
Slowest packet = 440
Flit latency average = 592.078
	minimum = 10
	maximum = 2866
Slowest flit = 3527
Fragmentation average = 43.7479
	minimum = 0
	maximum = 93
Injected packet rate average = 0.0173906
	minimum = 0 (at node 23)
	maximum = 0.115 (at node 35)
Injected packet number = 1113
Accepted packet rate average = 0.0188437
	minimum = 0 (at node 0)
	maximum = 0.084 (at node 38)
Injected flit rate average = 0.138953
	minimum = 0 (at node 23)
	maximum = 0.922 (at node 35)
Accepted flit rate average= 0.150203
	minimum = 0 (at node 0)
	maximum = 0.655 (at node 38)
Injected packet length average = 7.99012
Accepted packet length average = 7.97098
Total in-flight flits = 6191 (0 measured)
latency change    = 0.594589
throughput change = 0.0529491
Warmed up ...Time used is 3000 cycles
Debug: classes = 1
Class 0:
Packet latency average = 2137.06
	minimum = 705
	maximum = 3447
Network latency average = 182.699
	minimum = 19
	maximum = 947
Slowest packet = 4510
Flit latency average = 532.498
	minimum = 10
	maximum = 3867
Slowest flit = 3967
Fragmentation average = 32.7573
	minimum = 0
	maximum = 89
Injected packet rate average = 0.0153281
	minimum = 0 (at node 4)
	maximum = 0.118 (at node 35)
Injected packet number = 981
Accepted packet rate average = 0.016125
	minimum = 0 (at node 0)
	maximum = 0.075 (at node 46)
Injected flit rate average = 0.122734
	minimum = 0 (at node 4)
	maximum = 0.946 (at node 35)
Accepted flit rate average= 0.128484
	minimum = 0 (at node 0)
	maximum = 0.579 (at node 46)
Injected packet length average = 8.00714
Accepted packet length average = 7.96802
Total in-flight flits = 5824 (3040 measured)
latency change    = 0.241859
throughput change = 0.169038
Debug: classes = 1
Class 0:
Packet latency average = 2530.89
	minimum = 17
	maximum = 4384
Network latency average = 276.39
	minimum = 17
	maximum = 1770
Slowest packet = 4510
Flit latency average = 614.643
	minimum = 10
	maximum = 4727
Slowest flit = 7223
Fragmentation average = 33.1825
	minimum = 0
	maximum = 100
Injected packet rate average = 0.0152266
	minimum = 0 (at node 36)
	maximum = 0.116 (at node 35)
Injected packet number = 1949
Accepted packet rate average = 0.0155391
	minimum = 0 (at node 0)
	maximum = 0.067 (at node 39)
Injected flit rate average = 0.121805
	minimum = 0 (at node 36)
	maximum = 0.9275 (at node 35)
Accepted flit rate average= 0.124281
	minimum = 0 (at node 0)
	maximum = 0.5305 (at node 39)
Injected packet length average = 7.99949
Accepted packet length average = 7.99799
Total in-flight flits = 5851 (4341 measured)
latency change    = 0.155608
throughput change = 0.0338195
Debug: classes = 1
Class 0:
Packet latency average = 2964.14
	minimum = 17
	maximum = 5610
Network latency average = 341.17
	minimum = 17
	maximum = 2889
Slowest packet = 4510
Flit latency average = 620.714
	minimum = 10
	maximum = 5511
Slowest flit = 10319
Fragmentation average = 34.4404
	minimum = 0
	maximum = 106
Injected packet rate average = 0.0152448
	minimum = 0 (at node 36)
	maximum = 0.115 (at node 35)
Injected packet number = 2927
Accepted packet rate average = 0.0155208
	minimum = 0 (at node 0)
	maximum = 0.0646667 (at node 37)
Injected flit rate average = 0.122089
	minimum = 0 (at node 36)
	maximum = 0.921 (at node 35)
Accepted flit rate average= 0.124255
	minimum = 0 (at node 0)
	maximum = 0.511667 (at node 39)
Injected packet length average = 8.00854
Accepted packet length average = 8.0057
Total in-flight flits = 5790 (4860 measured)
latency change    = 0.146165
throughput change = 0.000209582
Debug: classes = 1
Class 0:
Packet latency average = 3335
	minimum = 17
	maximum = 6388
Network latency average = 389.174
	minimum = 17
	maximum = 3381
Slowest packet = 4510
Flit latency average = 621.248
	minimum = 10
	maximum = 6527
Slowest flit = 10703
Fragmentation average = 35.1065
	minimum = 0
	maximum = 106
Injected packet rate average = 0.0156172
	minimum = 0 (at node 36)
	maximum = 0.11425 (at node 35)
Injected packet number = 3998
Accepted packet rate average = 0.0157852
	minimum = 0 (at node 0)
	maximum = 0.0645 (at node 37)
Injected flit rate average = 0.124969
	minimum = 0 (at node 36)
	maximum = 0.91325 (at node 35)
Accepted flit rate average= 0.126082
	minimum = 0 (at node 0)
	maximum = 0.515 (at node 39)
Injected packet length average = 8.002
Accepted packet length average = 7.98738
Total in-flight flits = 5922 (5282 measured)
latency change    = 0.111201
throughput change = 0.0144892
Draining remaining packets ...
Class 0:
Remaining flits: 11800 11801 11802 11803 11804 11805 11806 11807 18840 18841 [...] (485 flits)
Measured flits: 38099 38100 38101 38102 38103 43122 43123 43124 43125 43126 [...] (399 flits)
Time taken is 8315 cycles
====== Overall Traffic Statistics ======
====== Traffic class 0 ======
Packet latency average = 3809.61 (1 samples)
	minimum = 17 (1 samples)
	maximum = 7765 (1 samples)
Network latency average = 557.346 (1 samples)
	minimum = 17 (1 samples)
	maximum = 4656 (1 samples)
Flit latency average = 816.716 (1 samples)
	minimum = 10 (1 samples)
	maximum = 7670 (1 samples)
Fragmentation average = 34.9918 (1 samples)
	minimum = 0 (1 samples)
	maximum = 106 (1 samples)
Injected packet rate average = 0.0156172 (1 samples)
	minimum = 0 (1 samples)
	maximum = 0.11425 (1 samples)
Accepted packet rate average = 0.0157852 (1 samples)
	minimum = 0 (1 samples)
	maximum = 0.0645 (1 samples)
Injected flit rate average = 0.124969 (1 samples)
	minimum = 0 (1 samples)
	maximum = 0.91325 (1 samples)
Accepted flit rate average = 0.126082 (1 samples)
	minimum = 0 (1 samples)
	maximum = 0.515 (1 samples)
Injected packet size average = 8.002 (1 samples)
Accepted packet size average = 7.98738 (1 samples)
Hops average = 5.93127 (1 samples)
Total run time 822.183
L = 2 K = 8.1 M = 2 N = 1
-----------------------------------------
- OCN Power Summary
- Completion Time:         8315
- Flit Widths:            64
- Channel Wire Power:      31.4774
- Channel Clock Power:     1.5497
- Channel Retiming Power:  0.39109
- Channel Leakage Power:   0.548227
- Input Read Power:        1.55406
- Input Write Power:       1.55406
- Input Leakage Power:     0.377487
- Switch Power:            1.62301
- Switch Control Power:    0.673081
- Switch Leakage Power:    0.468521
- Output DFF Power:        0.167671
- Output Clk Power:        0.645709
- Output Control Power:    0.0865321
- Total Power:             41.1166
-----------------------------------------

-----------------------------------------
- OCN Area Summary
- Channel Area:  0.10016
- Switch  Area:  0.167772
- Input  Area:   0.402653
- Output  Area:  0.0131072
- Total Area:    0.683693
-----------------------------------------
