BEGIN Configuration File: neural_trail
// $Id: mesh88_lat 5506 2013-05-07 21:22:23Z qtedq $
// Copyright (c) 2007-2012, Trustees of The Leland Stanford Junior University
// All rights reserved.
//
// Redistribution and use in source and binary forms, with or without
// modification, are permitted provided that the following conditions are met:
//
// Redistributions of source code must retain the above copyright notice, this
// list of conditions and the following disclaimer.
// Redistributions in binary form must reproduce the above copyright notice,
// this list of conditions and the following disclaimer in the documentation
// and/or other materials provided with the distribution.
//
// THIS SOFTWARE IS PROVIDED BY THE COPYRIGHT HOLDERS AND CONTRIBUTORS "AS IS"
// AND ANY EXPRESS OR IMPLIED WARRANTIES, INCLUDING, BUT NOT LIMITED TO, THE
// IMPLIED WARRANTIES OF MERCHANTABILITY AND FITNESS FOR A PARTICULAR PURPOSE
// ARE DISCLAIMED. IN NO EVENT SHALL THE COPYRIGHT OWNER OR CONTRIBUTORS BE
// LIABLE FOR ANY DIRECT, INDIRECT, INCIDENTAL, SPECIAL, EXEMPLARY, OR
// CONSEQUENTIAL DAMAGES (INCLUDING, BUT NOT LIMITED TO, PROCUREMENT OF
// SUBSTITUTE GOODS OR SERVICES; LOSS OF USE, DATA, OR PROFITS; OR BUSINESS
// INTERRUPTION) HOWEVER CAUSED AND ON ANY THEORY OF LIABILITY, WHETHER IN
// CONTRACT, STRICT LIABILITY, OR TORT (INCLUDING NEGLIGENCE OR OTHERWISE)
// ARISING IN ANY WAY OUT OF THE USE OF THIS SOFTWARE, EVEN IF ADVISED OF THE
// POSSIBILITY OF SUCH DAMAGE.

//8X8 mesh with 20 flits per packet under injection mode
//injection rate here is packet per cycle, NOT flit per cycle

// Topology

watch_out = watch_out.log;
//watch_file = bbb;
watch_packets = {0,1,2,3,4,5,6,7,8,9,10,11,12,13,14,15,16,17,18,19,20,21,22,23,24,25,26,27,28,29};
use_read_write = 0;


topology = mesh;
k = 8;
n = 2;

// Routing
routing_function = dor;

// Flow control
num_vcs     = 8;
vc_buf_size = 8;
wait_for_tail_credit = 1;

// Router architecture
vc_allocator = islip;
sw_allocator = islip;
alloc_iters  = 1;

credit_delay   = 2;
routing_delay  = 0;
vc_alloc_delay = 1;
sw_alloc_delay = 1;

input_speedup     = 2;
output_speedup    = 1;
internal_speedup  = 1.0;


// Traffic
traffic = neural({{36,16,2}});
neural = 1;
//injection_process = neural;
injection_process = bernoulli;
packet_size = 8;
neurons_expect_lastlayer = 52;
neurons_firstlayer = 36;

// Simulation
//sim_type = latency;
sim_type = throughput;
injection_rate = 0.01;

sim_power = 1;
channel_width = 64;
power_output_file = power_out.log;
tech_file = temp65;

END Configuration File: neural_trail
Debug: classes = 1
Class 0:
Packet latency average = 51.5297
	minimum = 17
	maximum = 195
Network latency average = 51.3297
	minimum = 17
	maximum = 195
Slowest packet = 28
Flit latency average = 37.6221
	minimum = 10
	maximum = 188
Slowest flit = 231
Fragmentation average = 13.3216
	minimum = 0
	maximum = 69
Injected packet rate average = 0.00604688
	minimum = 0 (at node 37)
	maximum = 0.016 (at node 15)
Injected packet number = 387
Accepted packet rate average = 0.00578125
	minimum = 0 (at node 0)
	maximum = 0.036 (at node 36)
Injected flit rate average = 0.0481406
	minimum = 0 (at node 37)
	maximum = 0.128 (at node 15)
Accepted flit rate average= 0.0467656
	minimum = 0 (at node 0)
	maximum = 0.288 (at node 36)
Injected packet length average = 7.96124
Accepted packet length average = 8.08919
Total in-flight flits = 103 (0 measured)
latency change    = 1
throughput change = 1
Debug: classes = 1
Class 0:
Packet latency average = 45.0119
	minimum = 17
	maximum = 195
Network latency average = 44.7213
	minimum = 17
	maximum = 195
Slowest packet = 28
Flit latency average = 33.6084
	minimum = 10
	maximum = 188
Slowest flit = 231
Fragmentation average = 8.17305
	minimum = 0
	maximum = 69
Injected packet rate average = 0.0060625
	minimum = 0 (at node 37)
	maximum = 0.0165 (at node 33)
Injected packet number = 776
Accepted packet rate average = 0.00591406
	minimum = 0 (at node 0)
	maximum = 0.032 (at node 36)
Injected flit rate average = 0.0483594
	minimum = 0 (at node 37)
	maximum = 0.132 (at node 33)
Accepted flit rate average= 0.0475469
	minimum = 0 (at node 0)
	maximum = 0.256 (at node 36)
Injected packet length average = 7.9768
Accepted packet length average = 8.03963
Total in-flight flits = 122 (0 measured)
latency change    = 0.144803
throughput change = 0.0164312
Debug: classes = 1
Class 0:
Packet latency average = 40.1164
	minimum = 17
	maximum = 94
Network latency average = 39.8307
	minimum = 17
	maximum = 94
Slowest packet = 961
Flit latency average = 30.9993
	minimum = 10
	maximum = 87
Slowest flit = 7695
Fragmentation average = 3.65344
	minimum = 0
	maximum = 39
Injected packet rate average = 0.00589063
	minimum = 0 (at node 36)
	maximum = 0.014 (at node 4)
Injected packet number = 377
Accepted packet rate average = 0.00590625
	minimum = 0 (at node 0)
	maximum = 0.028 (at node 43)
Injected flit rate average = 0.0473437
	minimum = 0 (at node 36)
	maximum = 0.112 (at node 4)
Accepted flit rate average= 0.047125
	minimum = 0 (at node 0)
	maximum = 0.224 (at node 43)
Injected packet length average = 8.03714
Accepted packet length average = 7.97884
Total in-flight flits = 122 (0 measured)
latency change    = 0.122032
throughput change = 0.00895225
Warmed up ...Time used is 3000 cycles
Debug: classes = 1
Class 0:
Packet latency average = 39.2085
	minimum = 17
	maximum = 74
Network latency average = 38.9372
	minimum = 17
	maximum = 74
Slowest packet = 1367
Flit latency average = 30.0139
	minimum = 10
	maximum = 67
Slowest flit = 10943
Fragmentation average = 3.87688
	minimum = 0
	maximum = 27
Injected packet rate average = 0.00640625
	minimum = 0 (at node 36)
	maximum = 0.021 (at node 32)
Injected packet number = 410
Accepted packet rate average = 0.0065
	minimum = 0 (at node 0)
	maximum = 0.029 (at node 40)
Injected flit rate average = 0.0512188
	minimum = 0 (at node 36)
	maximum = 0.168 (at node 32)
Accepted flit rate average= 0.05175
	minimum = 0 (at node 0)
	maximum = 0.232 (at node 42)
Injected packet length average = 7.99512
Accepted packet length average = 7.96154
Total in-flight flits = 90 (90 measured)
latency change    = 0.0231546
throughput change = 0.089372
Debug: classes = 1
Class 0:
Packet latency average = 39.7121
	minimum = 17
	maximum = 76
Network latency average = 39.4228
	minimum = 17
	maximum = 76
Slowest packet = 1668
Flit latency average = 30.5286
	minimum = 10
	maximum = 69
Slowest flit = 13351
Fragmentation average = 3.7406
	minimum = 0
	maximum = 27
Injected packet rate average = 0.00610156
	minimum = 0 (at node 36)
	maximum = 0.018 (at node 2)
Injected packet number = 781
Accepted packet rate average = 0.00616406
	minimum = 0 (at node 0)
	maximum = 0.0265 (at node 51)
Injected flit rate average = 0.0488047
	minimum = 0 (at node 36)
	maximum = 0.144 (at node 2)
Accepted flit rate average= 0.0492422
	minimum = 0 (at node 0)
	maximum = 0.2135 (at node 51)
Injected packet length average = 7.99872
Accepted packet length average = 7.98859
Total in-flight flits = 67 (67 measured)
latency change    = 0.0126793
throughput change = 0.0509281
Debug: classes = 1
Class 0:
Packet latency average = 39.884
	minimum = 17
	maximum = 88
Network latency average = 39.5632
	minimum = 17
	maximum = 86
Slowest packet = 2098
Flit latency average = 30.5767
	minimum = 10
	maximum = 79
Slowest flit = 17111
Fragmentation average = 3.88753
	minimum = 0
	maximum = 45
Injected packet rate average = 0.00603125
	minimum = 0 (at node 36)
	maximum = 0.016 (at node 2)
Injected packet number = 1158
Accepted packet rate average = 0.00606771
	minimum = 0 (at node 0)
	maximum = 0.0243333 (at node 38)
Injected flit rate average = 0.0481406
	minimum = 0 (at node 36)
	maximum = 0.128 (at node 2)
Accepted flit rate average= 0.0484427
	minimum = 0 (at node 0)
	maximum = 0.194667 (at node 38)
Injected packet length average = 7.98187
Accepted packet length average = 7.98369
Total in-flight flits = 85 (85 measured)
latency change    = 0.00431208
throughput change = 0.0165036
Debug: classes = 1
Class 0:
Packet latency average = 39.7455
	minimum = 17
	maximum = 88
Network latency average = 39.4465
	minimum = 17
	maximum = 86
Slowest packet = 2098
Flit latency average = 30.5814
	minimum = 10
	maximum = 79
Slowest flit = 17111
Fragmentation average = 3.62857
	minimum = 0
	maximum = 45
Injected packet rate average = 0.00594141
	minimum = 0 (at node 36)
	maximum = 0.01475 (at node 32)
Injected packet number = 1521
Accepted packet rate average = 0.00594922
	minimum = 0 (at node 0)
	maximum = 0.02525 (at node 37)
Injected flit rate average = 0.0475039
	minimum = 0 (at node 36)
	maximum = 0.118 (at node 32)
Accepted flit rate average= 0.047582
	minimum = 0 (at node 0)
	maximum = 0.202 (at node 37)
Injected packet length average = 7.9954
Accepted packet length average = 7.99803
Total in-flight flits = 109 (109 measured)
latency change    = 0.00348543
throughput change = 0.0180883
Debug: classes = 1
Class 0:
Packet latency average = 39.5651
	minimum = 17
	maximum = 88
Network latency average = 39.2166
	minimum = 17
	maximum = 86
Slowest packet = 2098
Flit latency average = 30.4343
	minimum = 10
	maximum = 79
Slowest flit = 17111
Fragmentation average = 3.47292
	minimum = 0
	maximum = 45
Injected packet rate average = 0.00586563
	minimum = 0 (at node 36)
	maximum = 0.014 (at node 32)
Injected packet number = 1877
Accepted packet rate average = 0.00588437
	minimum = 0 (at node 0)
	maximum = 0.0234 (at node 51)
Injected flit rate average = 0.0468844
	minimum = 0 (at node 36)
	maximum = 0.112 (at node 32)
Accepted flit rate average= 0.0470469
	minimum = 0 (at node 0)
	maximum = 0.1874 (at node 51)
Injected packet length average = 7.99307
Accepted packet length average = 7.99522
Total in-flight flits = 83 (83 measured)
latency change    = 0.00455875
throughput change = 0.011375
Draining remaining packets ...
Time taken is 8053 cycles
====== Overall Traffic Statistics ======
====== Traffic class 0 ======
Packet latency average = 39.5946 (1 samples)
	minimum = 17 (1 samples)
	maximum = 88 (1 samples)
Network latency average = 39.2483 (1 samples)
	minimum = 17 (1 samples)
	maximum = 86 (1 samples)
Flit latency average = 30.4541 (1 samples)
	minimum = 10 (1 samples)
	maximum = 79 (1 samples)
Fragmentation average = 3.48109 (1 samples)
	minimum = 0 (1 samples)
	maximum = 45 (1 samples)
Injected packet rate average = 0.00586563 (1 samples)
	minimum = 0 (1 samples)
	maximum = 0.014 (1 samples)
Accepted packet rate average = 0.00588437 (1 samples)
	minimum = 0 (1 samples)
	maximum = 0.0234 (1 samples)
Injected flit rate average = 0.0468844 (1 samples)
	minimum = 0 (1 samples)
	maximum = 0.112 (1 samples)
Accepted flit rate average = 0.0470469 (1 samples)
	minimum = 0 (1 samples)
	maximum = 0.1874 (1 samples)
Injected packet size average = 7.99307 (1 samples)
Accepted packet size average = 7.99522 (1 samples)
Hops average = 6.65477 (1 samples)
Total run time 192.142
L = 2 K = 8.1 M = 2 N = 1
-----------------------------------------
- OCN Power Summary
- Completion Time:         8053
- Flit Widths:            64
- Channel Wire Power:      12.539
- Channel Clock Power:     1.5497
- Channel Retiming Power:  0.15579
- Channel Leakage Power:   0.548227
- Input Read Power:        0.626961
- Input Write Power:       0.626961
- Input Leakage Power:     0.377487
- Switch Power:            0.655881
- Switch Control Power:    0.271544
- Switch Leakage Power:    0.468521
- Output DFF Power:        0.067644
- Output Clk Power:        0.645709
- Output Control Power:    0.0349099
- Total Power:             18.5683
-----------------------------------------

-----------------------------------------
- OCN Area Summary
- Channel Area:  0.10016
- Switch  Area:  0.167772
- Input  Area:   0.402653
- Output  Area:  0.0131072
- Total Area:    0.683693
-----------------------------------------
